Geom Title=Base Geometry
Program Version=6.10
River Reach=Itajai_Mirim , Main       
Reach XY= 4465
     665904.7136    6949116.9853     665855.8207    6949124.1651
     665830.8225    6949132.5830     665741.8235    6949150.4575
     665703.6531    6949153.8787     665671.8573    6949154.0329
     665650.2120    6949150.4700     665634.4018    6949150.4628
     665524.8963    6949176.6811     665476.5415    6949192.2741
     665453.8070    6949203.7966     665430.9828    6949218.9107
     665389.0468    6949258.5854     665357.4713    6949293.2771
     665338.1642    6949318.7379     665320.8470    6949358.4448
     665318.5897    6949435.3815     665317.6318    6949455.8178
     665318.2434    6949468.1765     665306.1479    6949612.1014
     665263.4652    6949701.1208     665218.2687    6949886.9270
     665202.4472    6949943.1250     665165.1970    6950003.8568
     665088.8543    6950093.5629     664939.3079    6950218.2327
     664860.7108    6950331.3940     664854.2105    6950342.2418
     664811.6626    6950418.2698     664778.6172    6950463.6842
     664721.3217    6950556.4553     664682.8854    6950615.2398
     664637.8382    6950703.8450     664613.5420    6950766.8825
     664577.3674    6950952.6746     664567.5296    6951097.8861
     664556.6873    6951147.9542     664549.0424    6951159.6705
     664499.9068    6951190.5621     664471.5815    6951195.0544
     664454.6918    6951213.3666     664446.2341    6951226.3460
     664433.0651    6951276.0352     664423.8385    6951292.0724
     664355.6015    6951337.7480     664224.5216    6951414.6085
     664177.7150    6951456.5267     664170.5721    6951468.1584
     664164.5567    6951482.8445     664138.2525    6951564.3695
     664127.4082    6951586.4896     664105.0294    6951619.0592
     664094.3502    6951630.6718     664057.0700    6951676.7391
     664036.7299    6951700.7928     664030.2896    6951714.7532
     664020.6597    6951763.3748     664002.9006    6951789.8872
     663977.1809    6951804.6490     663959.8824    6951819.8520
     663945.3856    6951877.5370     663918.2085    6951935.3919
     663908.8498    6951949.0256     663890.3239    6951958.1612
     663861.3421    6951968.3456     663853.6847    6951972.5816
     663832.6169    6951991.0485     663771.4649    6952053.6245
     663744.6614    6952076.7668     663719.4717    6952092.0861
     663707.9795    6952092.4616     663702.3768    6952090.0876
     663677.0843    6952071.1555     663666.1929    6952067.7109
     663657.8382    6952069.3076     663644.6763    6952086.6267
     663635.8634    6952102.7019     663630.7045    6952116.5119
     663625.9280    6952136.7551     663624.6682    6952168.0991
     663626.2021    6952211.1411     663625.5800    6952235.5175
     663624.1588    6952240.0356     663611.8550    6952263.1941
     663580.1633    6952297.5604     663561.9191    6952324.1228
     663548.6782    6952334.8272     663528.7249    6952374.6769
     663508.2669    6952420.3842     663500.9406    6952443.5094
     663494.9790    6952469.7080     663492.5436    6952474.4723
     663486.5940    6952483.0956     663485.2206    6952490.4609
     663471.1170    6952523.1069     663472.3471    6952546.4168
     663471.1172    6952553.4257     663464.7378    6952569.0692
     663464.4318    6952585.3519     663462.6797    6952593.9413
     663450.8160    6952610.1679     663451.4168    6952632.9543
     663444.2114    6952648.1435     663437.1275    6952654.6875
     663427.8108    6952667.1124     663425.6303    6952672.4716
     663423.9766    6952683.9962     663425.8962    6952707.1640
     663425.2078    6952711.8274     663421.2766    6952719.2380
     663416.3578    6952731.8368     663411.0379    6952738.8116
     663392.4425    6952756.1696     663383.3384    6952761.5992
     663365.2844    6952764.7658     663346.8825    6952778.8744
     663314.9176    6952812.9111     663278.5070    6952842.4747
     663264.5397    6952864.6910     663244.5269    6952883.9405
     663231.6698    6952899.0497     663209.3331    6952935.1407
     663193.7496    6952955.4391     663175.7761    6952995.0289
     663167.3219    6953015.8750     663151.9018    6953049.1807
     663151.8837    6953070.7897     663162.0558    6953097.2716
     663162.5198    6953103.1828     663152.2843    6953132.6850
     663126.4769    6953178.9394     663113.1797    6953209.2359
     663087.1728    6953275.3838     663062.1487    6953330.8029
     663048.9082    6953346.8479     663008.5867    6953379.6209
     662965.6149    6953409.9689     662926.8844    6953445.7789
     662897.5282    6953489.0103     662886.4853    6953524.7174
     662849.6761    6953578.0212     662838.2704    6953588.7113
     662829.4144    6953600.2319     662825.8227    6953609.4440
     662824.5276    6953620.5093     662819.8506    6953629.0820
     662803.1175    6953641.7934     662798.8582    6953646.8699
     662792.0350    6953664.1700     662769.3768    6953705.2619
     662766.0601    6953715.8555     662763.1978    6953759.1220
     662745.0978    6953826.5490     662741.2976    6953875.0694
     662733.8140    6953891.0152     662719.6307    6953924.6474
     662690.0486    6953965.1441     662667.3865    6953998.5896
     662658.2097    6954014.9901     662646.3911    6954044.4684
     662633.5978    6954095.7567     662627.6454    6954160.7836
     662613.7474    6954189.9127     662613.0653    6954202.5212
     662613.2711    6954209.8322     662605.4186    6954238.1939
     662601.1293    6954261.1117     662598.8724    6954293.4993
     662603.7091    6954304.3501     662615.3383    6954314.1245
     662619.3853    6954319.8220     662621.2466    6954326.0693
     662633.3453    6954345.1569     662650.7533    6954355.6412
     662684.7692    6954372.1436     662702.7312    6954390.8540
     662704.9833    6954396.0323     662710.9338    6954488.4382
     662712.8812    6954495.9587     662731.6609    6954533.0532
     662739.0530    6954554.7852     662743.4642    6954605.7008
     662753.8162    6954633.0781     662753.9787    6954642.3289
     662746.1619    6954698.6374     662733.3974    6954761.7935
     662746.0425    6954798.1606     662786.2989    6954891.5952
     662817.5044    6954974.4898     662877.9842    6955049.2381
     662887.9801    6955054.2579     662892.9198    6955060.1872
     662895.9313    6955080.1047     662891.9786    6955105.2897
     662891.6431    6955126.1161     662907.2898    6955160.8031
     662924.7126    6955181.2047     662936.6649    6955219.6420
     662950.0729    6955256.0986     662959.6546    6955271.5514
     663006.5078    6955300.7034     663037.4831    6955311.9597
     663045.0094    6955316.2477     663063.3043    6955335.3300
     663084.9730    6955370.3466     663099.3942    6955401.9691
     663099.2747    6955407.8327     663094.8600    6955414.6401
     663088.7804    6955418.0898     663071.6668    6955420.2126
     663044.8440    6955419.5835     663041.7962    6955424.4223
     663042.8275    6955434.3486     663050.0714    6955447.1065
     663062.3965    6955454.8766     663083.2763    6955458.0892
     663119.9250    6955456.8697     663134.1715    6955451.6379
     663180.6419    6955428.9891     663212.8364    6955406.4084
     663236.9512    6955392.8890     663272.7722    6955380.0003
     663285.6169    6955377.8233     663313.7596    6955380.3846
     663318.3165    6955377.5867     663327.9097    6955361.2689
     663353.0617    6955352.9327     663365.8189    6955350.8676
     663377.8688    6955349.8535     663384.4425    6955352.3367
     663431.2979    6955394.1310     663439.1747    6955399.4890
     663474.0179    6955414.7594     663523.3435    6955479.4588
     663575.9784    6955496.7410     663622.0936    6955515.5727
     663629.7184    6955519.8148     663652.0486    6955538.3769
     663695.8987    6955577.6949     663698.7146    6955582.1341
     663699.8357    6955589.1337     663696.0057    6955612.3117
     663695.0688    6955629.4450     663697.1061    6955646.5939
     663701.6309    6955655.4318     663710.9704    6955662.2882
     663724.2483    6955669.5907     663744.3532    6955679.0846
     663763.3875    6955688.3157     663773.7725    6955698.7264
     663784.1329    6955713.9355     663786.2923    6955725.4313
     663787.3265    6955753.2650     663786.0678    6955814.2960
     663787.3646    6955823.3432     663797.0624    6955850.3297
     663800.1170    6955863.7416     663793.7764    6955917.8704
     663792.3804    6955944.9941     663794.1797    6955953.2035
     663801.8905    6955971.9720     663823.9023    6956018.3635
     663876.4957    6956126.1246     663896.4051    6956148.2759
     663913.2251    6956164.0080     663921.5273    6956169.3601
     663943.2346    6956183.3424     663990.3197    6956227.1596
     664030.3164    6956271.3929     664033.4364    6956277.1245
     664034.6949    6956281.0859     664033.0721    6956288.2884
     664013.6005    6956302.5671     664000.4997    6956320.3619
     663995.4379    6956332.6968     663995.2144    6956342.5733
     663999.1941    6956357.1696     664011.3924    6956386.3498
     664013.6495    6956407.3299     664020.7184    6956416.4882
     664043.6782    6956432.4705     664049.7571    6956440.0131
     664054.8567    6956454.1068     664060.6594    6956485.2897
     664067.9658    6956504.0635     664073.1347    6956515.9511
     664084.7395    6956540.6401     664098.7442    6956557.1190
     664105.2352    6956572.5460     664108.8934    6956609.5975
     664113.0680    6956623.2271     664142.1316    6956675.8512
     664170.5375    6956707.3850     664175.7988    6956719.5262
     664179.2710    6956736.7777     664193.2096    6956754.9306
     664210.2245    6956768.1665     664235.6627    6956781.0013
     664258.2602    6956797.1543     664283.5871    6956813.4701
     664292.5918    6956817.3719     664319.5341    6956826.6625
     664399.3697    6956827.7746     664421.0062    6956831.9390
     664439.7268    6956840.4531     664472.4757    6956865.6560
     664484.3184    6956878.5398     664494.1732    6956894.9631
     664497.5812    6956901.5108     664499.2344    6956913.5120
     664498.7255    6956928.6006     664496.0069    6956939.5523
     664486.2999    6956959.8951     664483.4364    6956970.3611
     664484.0012    6957002.8664     664501.0575    6957078.7557
     664509.2233    6957102.5819     664534.3509    6957143.7223
     664537.1575    6957156.2509     664537.1290    6957179.8879
     664534.7862    6957196.7520     664521.3788    6957240.3158
     664521.5201    6957250.0988     664525.5693    6957275.6979
     664525.0595    6957284.8247     664512.9083    6957327.0196
     664510.0241    6957346.2513     664509.5932    6957355.3771
     664504.9963    6957371.4293     664502.3285    6957389.1178
     664505.9428    6957419.8534     664505.0456    6957432.5204
     664499.0665    6957453.0902     664497.9387    6957470.6583
     664515.0302    6957502.0220     664518.7722    6957514.2942
     664518.7686    6957522.8602     664501.6836    6957560.4561
     664499.5753    6957569.7706     664518.5007    6957620.6905
     664522.9947    6957636.7203     664529.0897    6957710.1747
     664522.1877    6957926.2993     664512.2602    6957968.5640
     664510.2589    6957980.7028     664505.7381    6958025.2775
     664498.6248    6958055.6141     664490.0341    6958081.1611
     664485.0167    6958088.7306     664477.9872    6958094.3877
     664471.8556    6958098.4593     664459.7916    6958100.8375
     664408.1815    6958094.5817     664325.4155    6958103.2712
     664292.6853    6958112.1095     664238.1756    6958143.1586
     664213.0822    6958161.4356     664191.0987    6958181.6987
     664182.2547    6958192.0785     664152.5740    6958237.5328
     664139.9856    6958290.8033     664135.5642    6958300.8468
     664123.2895    6958321.4563     664079.2492    6958384.6444
     664053.0265    6958422.7163     664051.4293    6958429.6414
     664052.7223    6958436.9046     664057.6722    6958446.4126
     664074.0552    6958460.2778     664088.1090    6958472.1573
     664168.5372    6958527.8062     664265.9246    6958603.3622
     664276.4649    6958607.4540     664445.3174    6958616.0835
     664472.9727    6958624.4447     664491.0700    6958631.9699
     664520.3688    6958651.6009     664526.6690    6958662.2764
     664528.6960    6958671.1919     664526.1554    6958708.7032
     664530.6229    6958742.6188     664529.4938    6958750.5350
     664523.2435    6958761.2570     664523.4916    6958771.6480
     664540.7778    6958804.8708     664575.4681    6958849.1629
     664594.6075    6958872.4429     664597.6368    6958881.6663
     664594.6097    6958896.1681     664590.5342    6958902.5171
     664547.6096    6958945.7454     664497.2914    6958986.7013
     664490.1667    6958994.1328     664485.5601    6959001.4196
     664483.4109    6959009.1833     664483.3509    6959026.8146
     664485.7994    6959036.9433     664492.2609    6959047.1069
     664501.1060    6959054.4571     664543.8796    6959073.5971
     664548.3528    6959079.1996     664544.3197    6959113.7612
     664556.7365    6959143.4921     664559.4252    6959177.4094
     664562.4345    6959193.9689     664577.8685    6959222.4294
     664579.7512    6959244.8882     664582.8793    6959258.5207
     664585.6927    6959270.7943     664584.9459    6959276.2675
     664582.2744    6959283.4065     664518.7283    6959367.6243
     664511.2099    6959380.3579     664496.8167    6959415.5017
     664468.7840    6959443.9800     664454.2939    6959455.6878
     664425.5472    6959462.6223     664387.2172    6959458.7590
     664366.1377    6959455.9387     664352.1171    6959456.9688
     664347.6485    6959459.0787     664343.2690    6959467.1049
     664346.9423    6959494.1496     664353.1375    6959508.0402
     664373.3218    6959526.6524     664434.3230    6959567.2569
     664442.3170    6959571.5490     664454.1920    6959574.1380
     664485.0785    6959575.6630     664493.2680    6959577.5811
     664535.4685    6959590.7006     664582.1253    6959601.5217
     664590.6643    6959606.6486     664596.0475    6959611.5630
     664599.7253    6959621.9523     664597.6320    6959659.6681
     664601.5723    6959683.7283     664607.4149    6959690.4650
     664609.0293    6959691.4517     664623.9875    6959700.6147
     664638.6713    6959712.8953     664667.2589    6959720.5788
     664698.5092    6959725.6113     664713.3209    6959729.7452
     664734.1811    6959739.0061     664800.3973    6959788.7364
     664805.0318    6959793.8159     664805.5872    6959799.1054
     664803.0644    6959803.3391     664794.6540    6959821.0383
     664785.1421    6959852.3934     664767.1478    6959923.3233
     664765.4938    6959941.4635     664770.1502    6960001.8943
     664769.9085    6960030.2548     664766.4392    6960043.4993
     664760.2149    6960053.9883     664731.0228    6960078.6375
     664707.5359    6960129.9604     664701.9921    6960135.9301
     664673.9132    6960148.5520     664615.1552    6960165.6412
     664606.0555    6960175.4706     664604.0509    6960183.7088
     664608.5082    6960213.1476     664625.8948    6960241.9253
     664638.6364    6960254.5312     664648.3661    6960263.6536
     664688.0090    6960315.7912     664702.5267    6960330.3678
     664706.2568    6960338.7507     664707.2203    6960347.2039
     664706.2582    6960357.9990     664701.0282    6960366.7349
     664681.7684    6960375.8917     664672.4056    6960376.4385
     664599.3466    6960367.1907     664593.0071    6960369.1153
     664583.0297    6960378.3691     664575.7796    6960412.6302
     664569.5256    6960433.4584     664560.4648    6960443.2650
     664552.3170    6960450.3888     664477.4204    6960478.0881
     664465.5572    6960487.5111     664463.3736    6960492.7375
     664464.0799    6960509.2947     664459.8530    6960513.9833
     664447.9185    6960520.3045     664426.1032    6960528.3539
     664421.9058    6960532.2997     664383.3398    6960587.0596
     664344.2980    6960642.4907     664300.6483    6960704.4548
     664267.3995    6960762.2126     664262.9099    6960774.6063
     664261.6994    6960786.0806     664269.8289    6960840.3147
     664269.9193    6960856.6695     664265.0747    6960872.0820
     664262.8086    6960879.2820     664253.0805    6960891.7014
     664115.1597    6961020.8712     664062.1620    6961080.2886
     663966.0786    6961257.5108     663964.8254    6961272.4652
     663988.3207    6961368.5809     663987.6374    6961390.6862
     663984.6891    6961403.0702     663957.3724    6961482.6332
     663956.0807    6961491.7593     663956.7251    6961505.9570
     663966.8770    6961544.4397     663969.2242    6961560.3101
     663969.3478    6961581.4072     663961.2147    6961613.3968
     663942.1407    6961656.6360     663934.7950    6961674.3201
     663932.5523    6961684.7776     663986.4519    6961756.9949
     663987.2878    6961771.4670     663983.0372    6961789.2317
     663978.0568    6961830.8088     663952.5972    6961869.6564
     663940.6194    6961886.1724     663931.2972    6961903.1737
     663926.2891    6961958.9795     663925.8110    6961972.7710
     663919.4770    6961986.2862     663916.1277    6962007.8951
     663916.7092    6962015.9102     663910.8114    6962050.9948
     663907.1302    6962072.9184     663908.6688    6962088.9436
     663913.7373    6962096.1453     663932.6045    6962106.9414
     663947.8422    6962110.9599     663980.1968    6962115.3593
     664024.0526    6962118.6076     664056.1085    6962115.4422
     664111.7923    6962111.6617     664122.2943    6962111.9313
     664141.3255    6962115.7548     664145.7290    6962119.7850
     664150.3878    6962128.8648     664152.0633    6962138.0952
     664144.5911    6962150.0189     664125.9845    6962165.3937
     664109.1861    6962182.9272     664093.0713    6962197.6148
     664071.2977    6962209.0314     664049.8828    6962213.2625
     664018.9744    6962206.8826     664010.1112    6962211.6330
     664004.1757    6962222.4168     663991.4951    6962256.6612
     663983.2953    6962288.1419     663979.7798    6962327.6494
     663983.8493    6962367.3658     663987.8167    6962377.9730
     663993.7721    6962384.2098     664005.1131    6962385.8535
     664017.6905    6962380.8762     664077.2619    6962328.3750
     664091.3949    6962319.9749     664100.4913    6962317.1384
     664142.2999    6962306.9499     664170.0009    6962304.8397
     664188.6494    6962308.1142     664194.0600    6962314.2585
     664195.4117    6962321.4544     664192.6566    6962334.2458
     664171.0917    6962355.3670     664160.6669    6962371.2419
     664139.0827    6962396.8401     664092.1666    6962449.4718
     664046.1535    6962463.1736     664013.3807    6962465.2736
     664005.3938    6962469.7796     664002.8234    6962483.8317
     664006.7425    6962513.7654     664024.0978    6962554.9001
     664033.5018    6962566.1882     664075.1293    6962587.5176
     664092.6379    6962598.6642     664107.1982    6962613.3407
     664118.1304    6962632.4539     664125.8953    6962655.7206
     664126.0797    6962663.5970     664122.7531    6962675.0662
     664115.9214    6962691.3030     664110.3929    6962697.0505
     664102.9406    6962697.9147     664031.8853    6962693.8442
     664020.4080    6962696.0808     664013.5286    6962701.3587
     664010.7320    6962709.5852     664011.0813    6962719.4539
     664014.5581    6962724.4052     664021.7212    6962730.0053
     664045.1348    6962744.3420     664086.8469    6962755.6750
     664107.1629    6962765.3102     664152.8661    6962806.7418
     664166.4864    6962824.2898     664168.9151    6962832.9230
     664168.3533    6962853.0209     664153.5796    6962924.4711
     664144.7596    6962959.1184     664124.8855    6963021.7828
     664109.2002    6963053.9065     664100.0154    6963068.6676
     664070.5808    6963096.5425     664026.8241    6963130.5924
     664024.2959    6963138.9372     664026.5185    6963146.9414
     664033.3513    6963151.4822     664044.5441    6963155.2998
     664093.1410    6963169.0452     664102.7786    6963174.8449
     664109.5482    6963184.2733     664123.3023    6963214.7737
     664143.4268    6963252.9347     664146.7723    6963268.0159
     664150.8944    6963297.5701     664149.9495    6963341.5311
     664145.6874    6963359.2073     664131.5948    6963389.2154
     664113.9631    6963433.3108     664098.0806    6963468.4844
     664092.7300    6963486.0976     664084.0423    6963529.9626
     664083.6554    6963543.1877     664086.2445    6963552.7163
     664094.4294    6963568.9075     664108.7820    6963584.9831
     664123.4298    6963597.9853     664168.7041    6963632.2531
     664181.8250    6963645.6634     664187.0000    6963655.6007
     664197.3544    6963686.8888     664212.4668    6963719.8421
     664302.2031    6963858.3774     664319.9673    6963882.5741
     664386.5394    6964015.8448     664415.4989    6964101.5812
     664426.6163    6964139.5853     664429.3811    6964159.2620
     664428.0087    6964174.1847     664421.2291    6964192.1385
     664391.6008    6964244.8719     664379.6415    6964259.9695
     664361.8698    6964269.9920     664344.4486    6964272.2196
     664339.5995    6964270.4117     664335.7203    6964266.4633
     664329.5705    6964250.2006     664318.3070    6964187.9525
     664307.0978    6964138.6244     664297.9624    6964114.2458
     664291.1754    6964103.5656     664284.7492    6964096.9362
     664276.8481    6964092.3988     664265.9891    6964089.2196
     664259.3051    6964089.1982     664255.1859    6964091.6911
     664248.5818    6964104.3012     664242.4056    6964135.6109
     664235.3786    6964239.3703     664231.4904    6964267.2917
     664223.7943    6964293.6350     664204.3955    6964308.4329
     664195.1881    6964328.9677     664185.6236    6964378.2853
     664185.3714    6964394.1903     664191.2357    6964406.1130
     664192.8573    6964415.0007     664184.5470    6964446.4496
     664182.3906    6964484.8639     664183.5740    6964492.0288
     664188.3372    6964520.6989     664189.0933    6964559.5287
     664191.5828    6964580.0955     664207.3451    6964612.7742
     664215.8922    6964637.5153     664220.3553    6964648.9026
     664229.0058    6964671.0161     664256.8293    6964707.2678
     664267.6102    6964717.1412     664277.3201    6964722.3415
     664291.1826    6964726.0458     664304.0256    6964721.5302
     664366.2319    6964690.7457     664379.2915    6964690.6042
     664395.1241    6964693.0187     664417.6701    6964699.0999
     664427.4302    6964706.5711     664430.8575    6964712.2100
     664432.9676    6964720.6368     664431.5863    6964733.4209
     664415.3580    6964767.2143     664408.8462    6964796.3566
     664402.6312    6964815.1560     664381.5932    6964878.2129
     664370.8257    6964907.0685     664368.4662    6964928.0437
     664371.5382    6964948.5141     664383.2185    6964987.9070
     664395.5591    6965057.4432     664418.3714    6965121.0882
     664423.5116    6965136.5000     664426.1312    6965157.1426
     664422.3250    6965174.9346     664414.7612    6965183.8454
     664396.8216    6965194.7234     664360.9485    6965211.0272
     664337.6832    6965225.8991     664318.0913    6965242.6278
     664298.6768    6965267.4545     664297.6881    6965276.3438
     664301.0113    6965283.0589     664346.2353    6965316.0528
     664353.4986    6965323.8567     664354.8134    6965332.7041
     664354.4996    6965353.6076     664352.3075    6965356.7951
     664346.5856    6965359.2651     664256.8815    6965384.4772
     664198.6778    6965401.3337     664189.7639    6965407.6472
     664185.4956    6965414.5635     664178.8608    6965446.4110
     664171.8367    6965507.6069     664172.0939    6965523.1616
     664176.1709    6965545.6021     664177.0844    6965597.7162
     664179.8651    6965649.7056     664178.2360    6965660.9970
     664170.8715    6965686.3495     664165.7608    6965696.0917
     664160.4327    6965702.8892     664127.4913    6965744.8616
     664116.2238    6965765.9999     664093.2968    6965830.7766
     664087.8452    6965841.6647     664050.2584    6965869.0272
     664025.5711    6965878.2438     664015.8052    6965882.2414
     664010.9484    6965886.5725     664008.4035    6965894.4630
     664008.1531    6965905.3482     664010.6151    6965922.3804
     664014.8575    6965937.9595     664025.6965    6965958.0603
     664029.8497    6965984.7440     664034.6897    6966002.1324
     664033.4357    6966009.6844     664012.7507    6966032.8098
     663999.7936    6966042.2244     663961.1071    6966043.5382
     663950.9682    6966049.2473     663930.0907    6966086.8805
     663928.5044    6966095.4674     663930.0811    6966116.5673
     663928.6905    6966135.3907     663920.7467    6966188.5646
     663920.0066    6966222.8044     663916.5720    6966239.6272
     663910.1192    6966244.4228     663898.3782    6966244.9339
     663878.2122    6966235.0855     663863.3550    6966231.7929
     663853.5764    6966233.3859     663845.3488    6966237.8283
     663836.8494    6966248.5906     663829.6746    6966273.4195
     663808.5374    6966327.9880     663808.5182    6966336.9419
     663811.3480    6966351.9082     663816.4693    6966359.9847
     663827.8638    6966366.8584     663866.2340    6966390.7037
     663868.7108    6966393.2748     663864.6077    6966441.5772
     663870.6415    6966472.8567     663876.7941    6966491.5352
     663884.2776    6966507.6806     663892.3768    6966518.8201
     663893.3172    6966524.8247     663888.4287    6966534.9627
     663858.9643    6966563.5349     663843.0417    6966571.6036
     663772.0624    6966599.3988     663762.5337    6966598.9827
     663734.2302    6966591.4808     663730.1218    6966587.4354
     663727.4651    6966581.7529     663707.2180    6966523.4914
     663684.9297    6966497.5921     663681.2718    6966488.0112
     663683.6527    6966452.1761     663700.2893    6966438.3136
     663704.5798    6966428.5604     663704.0024    6966379.9880
     663701.6217    6966359.3754     663698.5799    6966350.0190
     663694.9116    6966346.3335     663689.4166    6966345.0880
     663681.2094    6966346.6156     663673.0359    6966350.6804
     663634.0020    6966383.1802     663616.0453    6966401.8805
     663615.1258    6966412.2980     663619.9185    6966430.6180
     663619.5957    6966436.8277     663613.6314    6966453.0857
     663586.1049    6966560.4632     663565.5940    6966600.5397
     663555.7966    6966630.4785     663551.3369    6966655.7808
     663550.3817    6966670.2212     663556.2929    6966696.0616
     663555.1097    6966703.0141     663547.0972    6966725.1501
     663536.4069    6966748.1971     663482.9928    6966839.5072
     663480.3013    6966852.0315     663480.5110    6966871.5316
     663536.3835    6966922.7154     663577.7090    6966967.9313
     663585.9257    6966978.9808     663587.1635    6966990.2561
     663567.6040    6967069.9574     663566.8718    6967079.5967
     663568.2396    6967088.0113     663573.2010    6967095.2146
     663581.0995    6967100.9272     663616.9134    6967115.3662
     663621.5825    6967119.9249     663624.9246    6967128.8009
     663624.2783    6967138.9488     663611.2169    6967177.8070
     663606.4188    6967184.3755     663595.0892    6967188.3824
     663532.2998    6967196.4976     663519.0404    6967203.3780
     663491.6367    6967225.7163     663480.7322    6967231.9448
     663424.8223    6967250.9827     663367.3083    6967266.1522
     663303.5605    6967307.8993     663265.2254    6967337.4851
     663181.4536    6967409.2945     663167.9681    6967418.5489
     663151.1871    6967426.1404     663137.4210    6967426.1679
     663125.5823    6967420.1415     663118.3080    6967413.0242
     663095.8760    6967381.5297     663084.9237    6967369.2529
     663077.9705    6967369.9434     663072.2025    6967374.2418
     663047.9510    6967454.6690     663041.5154    6967467.5531
     662998.6753    6967531.1615     662974.1938    6967557.7150
     662951.6081    6967575.0791     662895.4193    6967604.5899
     662715.4580    6967693.1050     662702.2711    6967705.5352
     662664.8039    6967752.3387     662642.5498    6967774.6511
     662622.0229    6967790.7131     662604.7264    6967801.2693
     662550.7815    6967827.0808     662535.0590    6967839.2562
     662527.2935    6967848.8442     662518.3277    6967868.6538
     662503.8051    6967928.2516     662491.9606    6967962.2387
     662479.9161    6968042.5032     662476.5915    6968058.8696
     662465.5255    6968108.3933     662461.4875    6968134.3986
     662463.3083    6968187.6637     662463.7816    6968281.2043
     662467.1785    6968315.2561     662466.1125    6968322.9161
     662461.7418    6968331.2182     662423.8187    6968368.4305
     662410.5625    6968379.4428     662390.6511    6968390.5318
     662217.7994    6968459.0432     662195.9833    6968468.9713
     662191.2277    6968473.5994     662186.9768    6968481.2570
     662182.6469    6968494.1792     662180.7464    6968525.5860
     662171.1803    6968563.7202     662156.3830    6968608.6829
     662141.0887    6968645.9617     662131.6076    6968671.0413
     662120.7544    6968682.0659     662106.0564    6968690.2822
     662062.2028    6968706.1737     662046.0256    6968713.9773
     661955.9144    6968775.8101     661940.2215    6968788.8706
     661938.0125    6968792.3681     661940.3263    6968799.8395
     661982.2465    6968828.6528     662021.6075    6968856.8902
     662096.5285    6968919.1104     662158.3674    6968959.0190
     662170.2079    6968964.3592     662177.4235    6968965.5053
     662233.2251    6968963.0524     662247.6151    6968967.4614
     662259.3783    6968975.1850     662331.9695    6969055.5965