Proj Title=Modelo Itajai-Mirim
Program Version=6.10
Geom File=g01
Flow File=f01
Unit System=SI
